(|SYSTEM|::|VERSION| '(20100806.))
#0Y_ #0Y |CHARSET|::|UTF-8|
#Y(#:|1 53 (DEFUN VERBALISIERE-LEHRER (LEHRER) ...)-1|
   #20Y(00 00 00 00 00 00 00 00 20 01 DA 2F 01 DA DC 32 9C C5 19 01)
   (|COMMON-LISP-USER|::|VERBALISIERE-LEHRER|
    |SYSTEM|::|REMOVE-OLD-DEFINITIONS|
    #Y(|COMMON-LISP-USER|::|VERBALISIERE-LEHRER|
       #311Y(00 00 00 00 01 00 00 00 26 02 AD DA 70 01 63 AD 63 1B 80 AB CA 1B
             80 6D CB 1B 80 71 B1 B1 7B 02 AD 7B 02 84 08 16 02 1B 80 91 AF AF
             7B 02 B3 E1 38 02 31 C8 5C 78 94 00 AF 73 02 37 9E 5C 78 AF 73 02
             37 7B 02 B1 B1 7B 02 B5 E1 38 02 8D C8 4C B1 B1 7B 02 B5 E1 38 02
             71 C8 AD 7B 01 31 B7 16 02 1B 80 57 AF AF 7B 02 AE AE 7B 02 7B 02
             84 06 1B 80 48 87 01 00 14 DC 70 01 AD DD 70 01 AE DE 8A 01 FF 90
             CB 14 AF DE 8A 01 FF 8C CA 14 AF AF 7B 02 B3 E1 38 02 31 C8 5C 5B
             1C FF 8D AF AF 7B 02 B3 E1 38 02 8D C8 FF BB AF AF 7B 02 B3 E1 38
             02 71 C8 AE AE 7B 02 7B 01 31 B7 16 04 83 01 AD 8D 9F FF AF 16 02
             63 AD 1B 10 94 00 94 00 9E 5C 78 73 02 23 84 02 16 01 83 00 AC 8D
             9F 6C 16 01 AC 80 B1 00 E2 E3 38 02 72 82 DF AD 63 1B 1C 87 01 00
             AE 9E 5C 5C 78 82 02 37 02 14 E4 9F 5C 5C 5C 78 73 02 39 82 02 37
             02 83 01 AD 8D 9F 60 16 02 E5 6B 0C B3 AF 33 03 15 AD 63 1B 0C 87
             01 00 E7 6B 0C AE 33 02 15 83 01 AD 8D 9F 70 16 02 E8 6B 0C 33 01
             15 19 06)
       (|COMMON-LISP-USER|::|UNTERRICHT_EINHEITEN|
        |COMMON-LISP-USER|::|YAS=LESE_WERT| |COMMON-LISP-USER|::|KLASSE|
        |COMMON-LISP-USER|::|FACH| |COMMON-LISP-USER|::|DOPPEL_STUNDE| 0. 1.
        #.#'|COMMON-LISP|::|EQUAL| #.#'|COMMON-LISP|::|STRING<|
        #Y(|COMMON-LISP-USER|::|VERBALISIERE-LEHRER-1|
           #23Y(00 00 00 00 01 00 00 00 26 02 94 01 AC 8E 1D 03 15 19 02 9D 5B
                19 03)
           () (|COMMON-LISP|::|T| |COMMON-LISP|::|T| |COMMON-LISP|::|T|)
           (|COMMON-LISP-USER|::|WAS|) |COMMON-LISP|::|NIL| 1)
        2.
        #Y(|COMMON-LISP-USER|::|VERBALISIERE-LEHRER-2|
           #41Y(00 00 00 00 03 00 00 00 21 19 00 10 00 B3 01 02 DB 01 03 B9 2D
                08 02 DD B4 31 94 B3 01 02 DE 01 03 B8 2D 08 02 A1 11 19 05)
           (|SYSTEM|::|*FORMAT-CS*| 10. |SYSTEM|::|DO-FORMAT-ASCII| #\  5.)
           (|COMMON-LISP|::|T| |COMMON-LISP|::|T| |COMMON-LISP|::|T|))
        |COMMON-LISP|::|*STANDARD-OUTPUT*|
        #Y(|COMMON-LISP-USER|::|VERBALISIERE-LEHRER-3|
           #96Y(00 00 00 00 02 00 00 00 21 18 00 10 00 B1 1B 80 44 B3 01 02 DB
                01 03 94 07 83 08 2D 08 02 DD B4 31 94 B3 01 02 DE 01 03 94 07
                83 08 2D 08 02 DD B4 31 94 B3 01 02 DF 01 03 94 07 83 08 2D 08
                02 DD B4 31 94 B3 01 02 DF 01 03 94 07 83 08 2D 08 02 E0 B4 31
                94 AC 8D 9F FF B7 16 01 A1 11 19 04)
           (|SYSTEM|::|*FORMAT-CS*| 15. |SYSTEM|::|DO-FORMAT-ASCII| #\  5. 3.
            #\|)
           (|COMMON-LISP|::|T| |COMMON-LISP|::|T| |COMMON-LISP|::|T|))
        #Y(|COMMON-LISP-USER|::|VERBALISIERE-LEHRER-4|
           #20Y(00 00 00 00 01 00 00 00 21 17 00 10 00 B1 31 97 A1 11 19 03)
           (|SYSTEM|::|*FORMAT-CS*|)
           (|COMMON-LISP|::|T| |COMMON-LISP|::|T| |COMMON-LISP|::|T|)))
       (|COMMON-LISP|::|T| |COMMON-LISP|::|T| |COMMON-LISP|::|T|)
       (|COMMON-LISP-USER|::|LEHRER|) |COMMON-LISP|::|NIL| 1))
   (|COMMON-LISP|::|T| |COMMON-LISP|::|T| |COMMON-LISP|::|T|))
#Y(#:|55 61 (DEFUN SCH-SUCHE_FACH_BEI_KLASSE (KLASSE FACH) ...)-2|
   #20Y(00 00 00 00 00 00 00 00 20 01 DA 2F 01 DA DC 32 9C C5 19 01)
   (|COMMON-LISP-USER|::|SCH-SUCHE_FACH_BEI_KLASSE|
    |SYSTEM|::|REMOVE-OLD-DEFINITIONS|
    #Y(|COMMON-LISP-USER|::|SCH-SUCHE_FACH_BEI_KLASSE|
       #32Y(00 00 00 00 02 00 00 00 26 03 00 2B 01 7F 02 00 00 AC 6D 00 01 B0
            DB 70 02 38 05 32 6B 5B 19 04)
       (#Y(|COMMON-LISP-USER|::|SCH-SUCHE_FACH_BEI_KLASSE-1|
           #21Y(00 00 00 00 01 00 00 00 26 02 69 00 01 AE DB 70 02 32 13 19 02)
           (|COMMON-LISP|::|NIL| |COMMON-LISP-USER|::|FACH|
            |COMMON-LISP-USER|::|YAS=LESE_WERT|)
           (|COMMON-LISP|::|T| |COMMON-LISP|::|T| |COMMON-LISP|::|T|)
           (|COMMON-LISP-USER|::|UNTERRICHT_STUNDE|) |COMMON-LISP|::|NIL| 1)
        |COMMON-LISP-USER|::|UNTERRICHT_STUNDEN|
        |COMMON-LISP-USER|::|YAS=LESE_WERT|)
       (|COMMON-LISP|::|T| |COMMON-LISP|::|T| |COMMON-LISP|::|T|)
       (|COMMON-LISP-USER|::|KLASSE| |COMMON-LISP-USER|::|FACH|)
       |COMMON-LISP|::|NIL| 1))
   (|COMMON-LISP|::|T| |COMMON-LISP|::|T| |COMMON-LISP|::|T|))
#Y(#:|63 81 (DEFUN SCH=DIE_DEPUTAT_LISTE_AUSGEBEN NIL ...)-3|
   #20Y(00 00 00 00 00 00 00 00 20 01 DA 2F 01 DA DC 32 9C C5 19 01)
   (|COMMON-LISP-USER|::|SCH=DIE_DEPUTAT_LISTE_AUSGEBEN|
    |SYSTEM|::|REMOVE-OLD-DEFINITIONS|
    #Y(|COMMON-LISP-USER|::|SCH=DIE_DEPUTAT_LISTE_AUSGEBEN|
       #45Y(00 00 00 00 00 00 00 00 26 01 DA DB DC 6E 03 03 DE 6F 05 E0 6F 05
            E1 E2 E3 E4 E5 E6 E7 E8 E9 EA EB EC EB ED BC 2D 11 14 AC 2F 15 19
            02)
       (|COMMON-LISP-USER|::|*KOB=KARSTEN_AUSGABE_FENSTER*| :|WINDOW-TITLE|
        "Deputatsliste" |COMMON-LISP-USER|::|KLH=FENSTERSTREAM-ERZEUGEN|
        |COMMON-LISP-USER|::|KLASSE| |COMMON-LISP-USER|::|YAS=ALLE|
        |COMMON-LISP-USER|::|FAECHER|
        #Y(|COMMON-LISP-USER|::|SCH=DIE_DEPUTAT_LISTE_AUSGEBEN-1|
           #34Y(00 00 00 00 02 00 00 00 26 03 AE AE 70 00 93 00 0E AC DB 70 02
                DD AE DE 70 02 2D 03 05 19 04 00 19 04)
           (|COMMON-LISP-USER|::|SCH-SUCHE_FACH_BEI_KLASSE|
            |COMMON-LISP-USER|::|LEHRER| |COMMON-LISP-USER|::|YAS=LESE_WERT|
            " " |COMMON-LISP-USER|::|ANZAHL|
            |COMMON-LISP-USER|::|B=KONKATENIERE-NACH-STRING|)
           (|COMMON-LISP|::|T| |COMMON-LISP|::|T| |COMMON-LISP|::|T|)
           (|COMMON-LISP-USER|::|KLASSE| |COMMON-LISP-USER|::|FACH|)
           |COMMON-LISP|::|NIL| 1)
        :|TABELLEN-TITEL| "Die Deputatsliste" :|ZEILEN-TITEL| "Klassen"
        :|SPALTEN-TITEL| "Faecher" :|SEITEN-BREITE| 160. :|ZEILEN-BREITE| 10.
        :|SPALTEN-BREITE| :|STREAM| |COMMON-LISP-USER|::|B=TABELLE-AUSGEBEN|
        |COMMON-LISP-USER|::|KLH=FENSTERSTREAM-NACH-OBEN-GEHEN|)
       (|COMMON-LISP|::|T| |COMMON-LISP|::|T| |COMMON-LISP|::|T|) ()
       |COMMON-LISP|::|NIL| 1))
   (|COMMON-LISP|::|T| |COMMON-LISP|::|T| |COMMON-LISP|::|T|))
#Y(#:|83 99 (DEFUN SCH=DIE_RAUM_LISTE_AUSGEBEN NIL ...)-4|
   #20Y(00 00 00 00 00 00 00 00 20 01 DA 2F 01 DA DC 32 9C C5 19 01)
   (|COMMON-LISP-USER|::|SCH=DIE_RAUM_LISTE_AUSGEBEN|
    |SYSTEM|::|REMOVE-OLD-DEFINITIONS|
    #Y(|COMMON-LISP-USER|::|SCH=DIE_RAUM_LISTE_AUSGEBEN|
       #45Y(00 00 00 00 00 00 00 00 26 01 DA DB DC 6E 03 03 DE 6F 05 E0 6F 05
            E1 E2 E3 E4 E5 E6 E7 E8 E9 EA EB EC ED EE BC 2D 11 15 AC 2F 16 19
            02)
       (|COMMON-LISP-USER|::|*KOB=KARSTEN_AUSGABE_FENSTER*| :|WINDOW-TITLE|
        "raum_liste" |COMMON-LISP-USER|::|KLH=FENSTERSTREAM-ERZEUGEN|
        |COMMON-LISP-USER|::|RAUM| |COMMON-LISP-USER|::|YAS=ALLE|
        |COMMON-LISP-USER|::|FAECHER|
        #Y(|COMMON-LISP-USER|::|SCH=DIE_RAUM_LISTE_AUSGEBEN-1|
           #26Y(00 00 00 00 02 00 00 00 26 03 AD AF DA 70 01 38 03 8C C1 03 C8
                19 03 C7 19 03)
           (|COMMON-LISP-USER|::|VERWENDUNG|
            |COMMON-LISP-USER|::|YAS=LESE_WERT| |COMMON-LISP-USER|::|X| "")
           (|COMMON-LISP|::|T| |COMMON-LISP|::|T| |COMMON-LISP|::|T|)
           (|COMMON-LISP-USER|::|RAUM| |COMMON-LISP-USER|::|FACH|)
           |COMMON-LISP|::|NIL| 1)
        :|TABELLEN-TITEL| "Die Raumliste" :|ZEILEN-TITEL| "Raeume"
        :|SPALTEN-TITEL| "Faecher" :|SEITEN-BREITE| 120. :|ZEILEN-BREITE| 10.
        :|SPALTEN-BREITE| 5. :|STREAM| |COMMON-LISP-USER|::|B=TABELLE-AUSGEBEN|
        |COMMON-LISP-USER|::|KLH=FENSTERSTREAM-NACH-OBEN-GEHEN|)
       (|COMMON-LISP|::|T| |COMMON-LISP|::|T| |COMMON-LISP|::|T|) ()
       |COMMON-LISP|::|NIL| 1))
   (|COMMON-LISP|::|T| |COMMON-LISP|::|T| |COMMON-LISP|::|T|))
#Y(#:|101 117 (DEFUN SCH=DIE_LEHRER_LISTE_AUSGEBEN NIL ...)-5|
   #20Y(00 00 00 00 00 00 00 00 20 01 DA 2F 01 DA DC 32 9C C5 19 01)
   (|COMMON-LISP-USER|::|SCH=DIE_LEHRER_LISTE_AUSGEBEN|
    |SYSTEM|::|REMOVE-OLD-DEFINITIONS|
    #Y(|COMMON-LISP-USER|::|SCH=DIE_LEHRER_LISTE_AUSGEBEN|
       #45Y(00 00 00 00 00 00 00 00 26 01 DA DB DC 6E 03 03 DE 6F 05 E0 6F 05
            E1 E2 E3 E4 E5 E6 E7 E8 E9 EA EB EC ED EE BC 2D 11 15 AC 2F 16 19
            02)
       (|COMMON-LISP-USER|::|*KOB=KARSTEN_AUSGABE_FENSTER*| :|WINDOW-TITLE|
        "lehrer_liste" |COMMON-LISP-USER|::|KLH=FENSTERSTREAM-ERZEUGEN|
        |COMMON-LISP-USER|::|LEHRER| |COMMON-LISP-USER|::|YAS=ALLE|
        |COMMON-LISP-USER|::|KLASSE|
        #Y(|COMMON-LISP-USER|::|SCH=DIE_LEHRER_LISTE_AUSGEBEN-1|
           #26Y(00 00 00 00 02 00 00 00 26 03 AE AE DA 70 01 38 03 8C C1 03 C8
                19 03 C7 19 03)
           (|COMMON-LISP-USER|::|LEHRER| |COMMON-LISP-USER|::|YAS=LESE_WERT|
            |COMMON-LISP-USER|::|X| "")
           (|COMMON-LISP|::|T| |COMMON-LISP|::|T| |COMMON-LISP|::|T|)
           (|COMMON-LISP-USER|::|LEHRER| |COMMON-LISP-USER|::|KLASSE|)
           |COMMON-LISP|::|NIL| 1)
        :|TABELLEN-TITEL| "Die Lehrerliste" :|ZEILEN-TITEL| "Lehrer"
        :|SPALTEN-TITEL| "Klassen" :|SEITEN-BREITE| 120. :|ZEILEN-BREITE| 10.
        :|SPALTEN-BREITE| 5. :|STREAM| |COMMON-LISP-USER|::|B=TABELLE-AUSGEBEN|
        |COMMON-LISP-USER|::|KLH=FENSTERSTREAM-NACH-OBEN-GEHEN|)
       (|COMMON-LISP|::|T| |COMMON-LISP|::|T| |COMMON-LISP|::|T|) ()
       |COMMON-LISP|::|NIL| 1))
   (|COMMON-LISP|::|T| |COMMON-LISP|::|T| |COMMON-LISP|::|T|))
#Y(#:|119 135 (DEFUN SCH=DIE_FAECHER_LISTE_AUSGEBEN NIL ...)-6|
   #20Y(00 00 00 00 00 00 00 00 20 01 DA 2F 01 DA DC 32 9C C5 19 01)
   (|COMMON-LISP-USER|::|SCH=DIE_FAECHER_LISTE_AUSGEBEN|
    |SYSTEM|::|REMOVE-OLD-DEFINITIONS|
    #Y(|COMMON-LISP-USER|::|SCH=DIE_FAECHER_LISTE_AUSGEBEN|
       #45Y(00 00 00 00 00 00 00 00 26 01 DA DB DC 6E 03 03 DE 6F 05 E0 6F 05
            E1 E2 E3 E4 E5 E6 E7 E8 E9 EA EB EC ED EE BC 2D 11 15 AC 2F 16 19
            02)
       (|COMMON-LISP-USER|::|*KOB=KARSTEN_AUSGABE_FENSTER*| :|WINDOW-TITLE|
        "Faecherliste" |COMMON-LISP-USER|::|KLH=FENSTERSTREAM-ERZEUGEN|
        |COMMON-LISP-USER|::|KLASSE| |COMMON-LISP-USER|::|YAS=ALLE|
        |COMMON-LISP-USER|::|FAECHER|
        #Y(|COMMON-LISP-USER|::|SCH=DIE_FAECHER_LISTE_AUSGEBEN-1|
           #26Y(00 00 00 00 02 00 00 00 26 03 AD AF DA 70 01 38 03 8C C1 03 C8
                19 03 C7 19 03)
           (|COMMON-LISP-USER|::|FAECHER| |COMMON-LISP-USER|::|YAS=LESE_WERT|
            |COMMON-LISP-USER|::|X| "")
           (|COMMON-LISP|::|T| |COMMON-LISP|::|T| |COMMON-LISP|::|T|)
           (|COMMON-LISP-USER|::|KLASSE| |COMMON-LISP-USER|::|FACH|)
           |COMMON-LISP|::|NIL| 1)
        :|TABELLEN-TITEL| "Die Faecherliste" :|ZEILEN-TITEL| "Klassen"
        :|SPALTEN-TITEL| "Faecher" :|SEITEN-BREITE| 80. :|ZEILEN-BREITE| 10.
        :|SPALTEN-BREITE| 5. :|STREAM| |COMMON-LISP-USER|::|B=TABELLE-AUSGEBEN|
        |COMMON-LISP-USER|::|KLH=FENSTERSTREAM-NACH-OBEN-GEHEN|)
       (|COMMON-LISP|::|T| |COMMON-LISP|::|T| |COMMON-LISP|::|T|) ()
       |COMMON-LISP|::|NIL| 1))
   (|COMMON-LISP|::|T| |COMMON-LISP|::|T| |COMMON-LISP|::|T|))
#Y(#:|137 161 (DEFUN SCH-AUSGABE_EINER_BLOCKUNG (BLOCKUNG &OPTIONAL #) ...)-7|
   #20Y(00 00 00 00 00 00 00 00 20 01 DA 2F 01 DA DC 32 9C C5 19 01)
   (|COMMON-LISP-USER|::|SCH-AUSGABE_EINER_BLOCKUNG|
    |SYSTEM|::|REMOVE-OLD-DEFINITIONS|
    #Y(|COMMON-LISP-USER|::|SCH-AUSGABE_EINER_BLOCKUNG|
       #124Y(00 00 00 00 01 00 01 00 26 08 3B 01 02 7E 01 AE DA 70 01 9D 20 10
             DC AF DD B2 B3 DE 70 01 2D 05 05 AC 63 1B 80 4A 00 19 04 E0 B1 E1
             AF E2 70 01 B0 E3 70 01 B1 E4 70 01 1B 2C 87 01 00 20 6A E5 B1 E6
             94 03 E2 70 01 94 04 E3 70 01 63 B2 1B 0C 94 00 AC E4 70 01 84 02
             16 01 83 00 AC 8D 9F 70 16 01 AC 80 B1 00 B2 2D 07 05 B0 E7 30 0E
             83 01 AD 8D 9F 46 16 02 AE E9 30 0E 19 04)
       (|COMMON-LISP-USER|::|UNTERRICHT_STUNDEN|
        |COMMON-LISP-USER|::|YAS=LESE_WERT| (10. 2.)
        "Blockung ~A ~A stunden bei ~%" |COMMON-LISP-USER|::|DAUER|
        |COMMON-LISP-USER|::|KLH=FORMAT_LISTE| (15. 10. 5. 15.)
        "Lehrer ~a Fach ~a Klasse ~a Unterricht stunde ~A "
        |COMMON-LISP-USER|::|LEHRER| |COMMON-LISP-USER|::|FACH|
        |COMMON-LISP-USER|::|KLASSE| (15. 10. 20. 50.)
        "Lehrer ~a Fach ~a Klassen ~a Unterricht stunde ~A"
        #Y(|COMMON-LISP-USER|::|SCH-AUSGABE_EINER_BLOCKUNG-1|
           #20Y(00 00 00 00 01 00 00 00 21 17 00 10 00 B1 31 97 A1 11 19 03)
           (|SYSTEM|::|*FORMAT-CS*|)
           (|COMMON-LISP|::|T| |COMMON-LISP|::|T| |COMMON-LISP|::|T|))
        |COMMON-LISP|::|FORMAT|
        #Y(|COMMON-LISP-USER|::|SCH-AUSGABE_EINER_BLOCKUNG-2|
           #20Y(00 00 00 00 01 00 00 00 21 17 00 10 00 B1 31 97 A1 11 19 03)
           (|SYSTEM|::|*FORMAT-CS*|)
           (|COMMON-LISP|::|T| |COMMON-LISP|::|T| |COMMON-LISP|::|T|)))
       (|COMMON-LISP|::|T| |COMMON-LISP|::|T| |COMMON-LISP|::|T|)
       (|COMMON-LISP-USER|::|BLOCKUNG| |COMMON-LISP|::|&OPTIONAL|
        (|COMMON-LISP|::|STREAM| |COMMON-LISP|::|T|))
       |COMMON-LISP|::|NIL| 1))
   (|COMMON-LISP|::|T| |COMMON-LISP|::|T| |COMMON-LISP|::|T|))
#Y(#:|163 174 (DEFUN SCH-AUSGABE_EINER_BLOCKUNG_2 (BLOCKUNG &OPTIONAL #) ...)-8|
   #20Y(00 00 00 00 00 00 00 00 20 01 DA 2F 01 DA DC 32 9C C5 19 01)
   (|COMMON-LISP-USER|::|SCH-AUSGABE_EINER_BLOCKUNG_2|
    |SYSTEM|::|REMOVE-OLD-DEFINITIONS|
    #Y(|COMMON-LISP-USER|::|SCH-AUSGABE_EINER_BLOCKUNG_2|
       #58Y(00 00 00 00 01 00 01 00 26 08 3B 01 02 7E 01 AE DA 70 01 AC 32 17
            1F 20 DC AF DD B2 B3 DE 70 01 2D 05 05 E0 AF E1 AF E2 70 01 B0 E3
            70 01 B1 E4 70 01 B2 2D 07 05 19 04 19 04)
       (|COMMON-LISP-USER|::|UNTERRICHT_STUNDEN|
        |COMMON-LISP-USER|::|YAS=LESE_WERT| (10. 2.)
        "Blockung ~A ~A stunden bei ~%" |COMMON-LISP-USER|::|DAUER|
        |COMMON-LISP-USER|::|KLH=FORMAT_LISTE| (15. 10. 5. 15.)
        "Lehrer ~a Fach ~a Klasse  ~a Unterricht stunde ~A ~2%"
        |COMMON-LISP-USER|::|LEHRER| |COMMON-LISP-USER|::|FACH|
        |COMMON-LISP-USER|::|KLASSE|)
       (|COMMON-LISP|::|T| |COMMON-LISP|::|T| |COMMON-LISP|::|T|)
       (|COMMON-LISP-USER|::|BLOCKUNG| |COMMON-LISP|::|&OPTIONAL|
        (|COMMON-LISP|::|STREAM| |COMMON-LISP|::|T|))
       |COMMON-LISP|::|NIL| 1))
   (|COMMON-LISP|::|T| |COMMON-LISP|::|T| |COMMON-LISP|::|T|))
#Y(#:|176 186 (DEFUN SCH=DIE_BLOCKUNG_LISTE_AUSGEBEN NIL ...)-9|
   #20Y(00 00 00 00 00 00 00 00 20 01 DA 2F 01 DA DC 32 9C C5 19 01)
   (|COMMON-LISP-USER|::|SCH=DIE_BLOCKUNG_LISTE_AUSGEBEN|
    |SYSTEM|::|REMOVE-OLD-DEFINITIONS|
    #Y(|COMMON-LISP-USER|::|SCH=DIE_BLOCKUNG_LISTE_AUSGEBEN|
       #71Y(00 00 00 00 00 00 00 00 26 01 DA DB DC 6E 03 03 AC DE 30 05 E0 6F
            07 63 1B 09 87 01 00 14 AF 30 08 83 01 AD 8D 9F 73 16 02 AC E3 30
            05 E0 6F 07 63 1B 09 87 01 00 14 AF 30 0A 83 01 AD 8D 9F 73 16 02
            AC 2F 0B 19 02)
       (|COMMON-LISP-USER|::|*KOB=KARSTEN_AUSGABE_FENSTER*| :|WINDOW-TITLE|
        "blockung_liste" |COMMON-LISP-USER|::|KLH=FENSTERSTREAM-ERZEUGEN|
        #Y(|COMMON-LISP-USER|::|SCH=DIE_BLOCKUNG_LISTE_AUSGEBEN-1|
           #23Y(00 00 00 00 01 00 00 00 21 17 00 10 00 DB B2 38 02 31 95 A1 11
                19 03)
           (|SYSTEM|::|*FORMAT-CS*|
            "Blockungliste explizit\n
 \n")
           (|COMMON-LISP|::|T| |COMMON-LISP|::|T| |COMMON-LISP|::|T|))
        |COMMON-LISP|::|FORMAT| |COMMON-LISP-USER|::|BLOCKUNG|
        |COMMON-LISP-USER|::|YAS=ALLE|
        |COMMON-LISP-USER|::|SCH-AUSGABE_EINER_BLOCKUNG|
        #Y(|COMMON-LISP-USER|::|SCH=DIE_BLOCKUNG_LISTE_AUSGEBEN-2|
           #23Y(00 00 00 00 01 00 00 00 21 17 00 10 00 DB B2 38 02 31 95 A1 11
                19 03)
           (|SYSTEM|::|*FORMAT-CS*|
            "Blockungliste implizit \n
 \n")
           (|COMMON-LISP|::|T| |COMMON-LISP|::|T| |COMMON-LISP|::|T|))
        |COMMON-LISP-USER|::|SCH-AUSGABE_EINER_BLOCKUNG_2|
        |COMMON-LISP-USER|::|KLH=FENSTERSTREAM-NACH-OBEN-GEHEN|)
       (|COMMON-LISP|::|T| |COMMON-LISP|::|T| |COMMON-LISP|::|T|) ()
       |COMMON-LISP|::|NIL| 1))
   (|COMMON-LISP|::|T| |COMMON-LISP|::|T| |COMMON-LISP|::|T|))
#Y(#:|189 195 (DEFUN SCH=OBJEKT_PLAN_AUSGABE (OBJEKT) ...)-10|
   #20Y(00 00 00 00 00 00 00 00 20 01 DA 2F 01 DA DC 32 9C C5 19 01)
   (|COMMON-LISP-USER|::|SCH=OBJEKT_PLAN_AUSGABE|
    |SYSTEM|::|REMOVE-OLD-DEFINITIONS|
    #Y(|COMMON-LISP-USER|::|SCH=OBJEKT_PLAN_AUSGABE|
       #28Y(00 00 00 00 01 00 00 00 26 02 DA DB DC B0 70 03 6E 03 04 AE AD 30
            05 AC 2F 06 19 03)
       (|COMMON-LISP-USER|::|*KOB=KARSTEN_AUSGABE_FENSTER*| :|WINDOW-TITLE|
        "Stundenplan " |COMMON-LISP-USER|::|B=KONKATENIERE-NACH-STRING|
        |COMMON-LISP-USER|::|KLH=FENSTERSTREAM-ERZEUGEN|
        |COMMON-LISP-USER|::|SCH=PLAN_AUSGABE|
        |COMMON-LISP-USER|::|KLH=FENSTERSTREAM-NACH-OBEN-GEHEN|)
       (|COMMON-LISP|::|T| |COMMON-LISP|::|T| |COMMON-LISP|::|T|)
       (|COMMON-LISP-USER|::|OBJEKT|) |COMMON-LISP|::|NIL| 1))
   (|COMMON-LISP|::|T| |COMMON-LISP|::|T| |COMMON-LISP|::|T|))
#Y(#:|197 354 (DEFUN SCH=PLAN_AUSGABE (OBJEKT &OPTIONAL #) ...)-11|
   #20Y(00 00 00 00 00 00 00 00 20 01 DA 2F 01 DA DC 32 9C C5 19 01)
   (|COMMON-LISP-USER|::|SCH=PLAN_AUSGABE| |SYSTEM|::|REMOVE-OLD-DEFINITIONS|
    #Y(|COMMON-LISP-USER|::|SCH=PLAN_AUSGABE|
       #309Y(00 00 00 00 01 00 01 00 26 08 00 2B 02 7F 03 00 00 3B 02 01 02 0B
             00 01 9D 2B 02 00 0B 00 00 68 01 00 DA 30 01 0B 00 01 68 01 00 6F
             02 AD 6D 03 01 AE 6D 04 01 AF 6D 05 01 B0 6D 06 01 B1 6D 07 01 68
             07 01 E2 68 09 00 DA 70 01 68 0A 00 2D 04 09 68 07 01 E4 30 09 E5
             6F 0C 63 1B 27 EE 68 0B 01 EF A1 1B 80 4A AD A9 1B 80 71 68 0C 01
             AC 24 1A 74 9E 1B 80 5F 87 01 00 E7 68 0A 01 E8 AF 2D 04 0F 83 01
             AD 8D 9F 6E 16 02 68 07 01 EA 30 09 EB 6F 0C 63 AD 8C 9F 80 7B 87
             01 00 EC AC ED 90 01 34 80 5D AC 24 12 FF B4 EE 68 0B 01 F0 03 17
             14 2D 04 0F E5 6F 0C 63 AD 8C 9F 34 87 01 00 14 B0 70 18 AC 89 19
             1A AF 24 12 FF 9F 68 0C 01 AC 25 1A 06 AD A2 14 A8 1B 03 AD B1 A7
             34 16 01 1B 09 E7 68 0E 01 F5 F6 2D 04 0F 16 01 83 01 1B 48 16 02
             68 0A 01 F7 30 09 85 00 1B FF A0 16 02 1B 15 16 01 68 09 01 65 1E
             30 09 AC B4 8E 13 6E 83 01 1B FF 80 16 02 68 07 01 65 1F 30 09 06
             06 00 1D 07 68 06 00 72 63 9E 34 68 07 01 65 20 65 21 2D 03 09 19
             0B)
       (|COMMON-LISP-USER|::|INSTANZ_VON| |COMMON-LISP-USER|::|YAS=LESE_WERT|
        |COMMON-LISP-USER|::|SCH=LETZTE_BELEGTE_STUNDE|
        #Y(|COMMON-LISP-USER|::|SCH=PLAN_AUSGABE-AUSGABE_PHASE_0_KLASSE|
           #115Y(00 00 00 00 01 00 00 00 26 02 69 01 01 AE 70 01 63 AD 88 02 1B
                 93 01 80 51 DF 69 01 02 E6 B0 2D 04 08 19 04 DF 69 01 02 E0 94
                 03 E1 70 01 1B 6F AD DD 30 01 F8 DE AD 72 62 90 01 2F 67 AD 07
                 00 01 5D 0C 00 01 DF 69 01 02 E3 63 B1 DD 70 01 1B 0C 94 00 AC
                 E1 70 01 84 02 16 01 83 00 AC 8D 9F 70 16 01 AC 80 B1 00 1B FF
                 B5 DF 69 01 02 E4 E5 1B FF AC)
           (|COMMON-LISP|::|NIL| |COMMON-LISP-USER|::|YAS=LESE_WERT|
            |COMMON-LISP-USER|::|YAS=EIN_OBJEKT_P|
            |COMMON-LISP-USER|::|UNTERRICHT_EINHEITEN| 1. 20. "~a"
            |COMMON-LISP-USER|::|FACH| |COMMON-LISP-USER|::|KLH=FORMAT| "~a"
            "~a" |COMMON-LISP-USER|::|---| "~a")
           (|COMMON-LISP|::|T| |COMMON-LISP|::|T| |COMMON-LISP|::|T|)
           (|COMMON-LISP-USER|::|ZEIT|) |COMMON-LISP|::|NIL| 1)
        #Y(|COMMON-LISP-USER|::|SCH=PLAN_AUSGABE-AUSGABE_PHASE_0_SONST|
           #54Y(00 00 00 00 01 00 00 00 26 02 69 01 01 AE 70 01 AC 88 02 0F 93
                00 17 DD 69 01 02 E3 A0 14 2D 04 06 19 03 DD 69 01 02 DE AF DF
                30 01 1B 6F DD 69 01 02 E1 CD 1B 67)
           (|COMMON-LISP|::|NIL| |COMMON-LISP-USER|::|YAS=LESE_WERT|
            |COMMON-LISP-USER|::|YAS=EIN_OBJEKT_P| 20. "~a"
            |COMMON-LISP-USER|::|KLASSE| |COMMON-LISP-USER|::|KLH=FORMAT| "~a"
            |COMMON-LISP-USER|::|---| "~a")
           (|COMMON-LISP|::|T| |COMMON-LISP|::|T| |COMMON-LISP|::|T|)
           (|COMMON-LISP-USER|::|ZEIT|) |COMMON-LISP|::|NIL| 1)
        #Y(|COMMON-LISP-USER|::|SCH=PLAN_AUSGABE-AUSGABE_PHASE_1_2_KLASSE|
           #150Y(00 00 00 00 02 00 00 00 26 03 69 01 01 AF 70 01 63 AD 88 02 80
                 60 DF 69 01 02 E6 D2 14 2D 04 0A 19 05 94 03 E1 30 01 1B 73 94
                 03 2F 09 1B 6D DF 69 01 02 E0 B2 24 04 6A B2 24 08 6D 00 1B 5D
                 63 B1 DD 70 01 AC 8C 9F 24 94 00 AC E1 70 01 84 02 16 01 83 00
                 1B 6E 63 B1 DD 70 01 1B 0B 94 00 AC 6F 09 84 02 16 01 83 00 AC
                 8D 9F 71 16 01 AC 31 B1 16 01 1B FF A6 AD DD 30 01 F8 DE AD 72
                 62 90 01 2F FF AB DF 69 01 02 E5 B2 24 04 FF B1 B2 24 08 44 00
                 1B FF 86)
           (|COMMON-LISP|::|NIL| |COMMON-LISP-USER|::|YAS=LESE_WERT|
            |COMMON-LISP-USER|::|YAS=EIN_OBJEKT_P|
            |COMMON-LISP-USER|::|UNTERRICHT_EINHEITEN| 1. 20. "~a"
            |COMMON-LISP-USER|::|LEHRER| 2. |COMMON-LISP-USER|::|SCH=DER-RAUM|
            |COMMON-LISP-USER|::|KLH=FORMAT| "~a" "~a"
            |COMMON-LISP-USER|::|---|)
           (|COMMON-LISP|::|T| |COMMON-LISP|::|T| |COMMON-LISP|::|T|)
           (|COMMON-LISP-USER|::|ZEIT| |COMMON-LISP|::|PHASE|)
           |COMMON-LISP|::|NIL| 1)
        #Y(|COMMON-LISP-USER|::|SCH=PLAN_AUSGABE-AUSGABE_PHASE_1_2_SONST|
           #71Y(00 00 00 00 02 00 00 00 26 03 69 01 01 AF 70 01 69 00 02 AC 24
                02 12 C7 F8 AD 88 04 1A DF 69 01 02 E5 D1 14 2D 04 0A 19 05 C8
                1B 6C B0 B0 30 01 1B 71 B0 2F 09 1B 6C DF 69 01 02 E0 B2 24 07
                6C B2 24 08 6E 00 1B 5C)
           (|COMMON-LISP|::|NIL| |COMMON-LISP-USER|::|YAS=LESE_WERT|
            |COMMON-LISP-USER|::|LEHRER| |COMMON-LISP-USER|::|FACH|
            |COMMON-LISP-USER|::|YAS=EIN_OBJEKT_P| 20. "~a" 1. 2.
            |COMMON-LISP-USER|::|SCH=DER-RAUM| |COMMON-LISP-USER|::|KLH=FORMAT|
            "~a" |COMMON-LISP-USER|::|---|)
           (|COMMON-LISP|::|T| |COMMON-LISP|::|T| |COMMON-LISP|::|T|)
           (|COMMON-LISP-USER|::|ZEIT| |COMMON-LISP|::|PHASE|)
           |COMMON-LISP|::|NIL| 1)
        #Y(|COMMON-LISP-USER|::|SCH=PLAN_AUSGABE-AUSGABE_BLOCKUNGEN|
           #119Y(00 00 00 00 01 00 00 00 26 02 69 01 02 DB 30 02 AD 63 1B 80 5A
                 87 01 00 DD 69 01 02 DE AF DF 70 06 2D 04 07 69 01 02 E2 30 02
                 AC E3 70 06 63 1B 30 87 01 00 E4 63 1B 11 87 01 00 DD 69 01 02
                 E5 B1 B0 70 06 2D 04 07 83 01 AD 8D 9F 6B 16 02 69 01 02 E6 AE
                 6F 0D 2D 03 02 69 01 02 E8 30 02 83 01 AD 8D 9F 4C 16 02 69 01
                 02 E9 30 02 83 01 AD 8D 9F FF A1 00 19 04)
           (|COMMON-LISP|::|NIL|
            #Y(|COMMON-LISP-USER|::|SCH=PLAN_AUSGABE-AUSGABE_BLOCKUNGEN-1|
               #23Y(00 00 00 00 01 00 00 00 21 17 00 10 00 DB B2 38 02 31 95 A1
                    11 19 03)
               (|SYSTEM|::|*FORMAT-CS*| "Komplexe blockungen \n\n")
               (|COMMON-LISP|::|T| |COMMON-LISP|::|T| |COMMON-LISP|::|T|))
            |COMMON-LISP|::|FORMAT| 20. "~a" |COMMON-LISP-USER|::|ZEIT|
            |COMMON-LISP-USER|::|YAS=LESE_WERT|
            |COMMON-LISP-USER|::|KLH=FORMAT|
            #Y(|COMMON-LISP-USER|::|SCH=PLAN_AUSGABE-AUSGABE_BLOCKUNGEN-2|
               #20Y(00 00 00 00 01 00 00 00 21 17 00 10 00 B1 31 97 A1 11 19
                    03)
               (|SYSTEM|::|*FORMAT-CS*|)
               (|COMMON-LISP|::|T| |COMMON-LISP|::|T| |COMMON-LISP|::|T|))
            |COMMON-LISP-USER|::|UNTERRICHT_EINHEITEN|
            (|COMMON-LISP-USER|::|FACH| |COMMON-LISP-USER|::|LEHRER|
             |COMMON-LISP-USER|::|KLASSE|)
            "~a"
            #Y(|COMMON-LISP-USER|::|SCH=PLAN_AUSGABE-AUSGABE_BLOCKUNGEN-3|
               #21Y(00 00 00 00 02 00 00 00 21 18 00 10 00 B1 B3 31 90 A1 11 19
                    04)
               (|SYSTEM|::|*FORMAT-CS*|)
               (|COMMON-LISP|::|T| |COMMON-LISP|::|T| |COMMON-LISP|::|T|))
            |COMMON-LISP-USER|::|SCH=DER-RAUM|
            #Y(|COMMON-LISP-USER|::|SCH=PLAN_AUSGABE-AUSGABE_BLOCKUNGEN-4|
               #20Y(00 00 00 00 01 00 00 00 21 17 00 10 00 B1 31 97 A1 11 19
                    03)
               (|SYSTEM|::|*FORMAT-CS*|)
               (|COMMON-LISP|::|T| |COMMON-LISP|::|T| |COMMON-LISP|::|T|))
            #Y(|COMMON-LISP-USER|::|SCH=PLAN_AUSGABE-AUSGABE_BLOCKUNGEN-5|
               #20Y(00 00 00 00 01 00 00 00 21 17 00 10 00 B1 31 97 A1 11 19
                    03)
               (|SYSTEM|::|*FORMAT-CS*|)
               (|COMMON-LISP|::|T| |COMMON-LISP|::|T| |COMMON-LISP|::|T|)))
           (|COMMON-LISP|::|T| |COMMON-LISP|::|T| |COMMON-LISP|::|T|)
           (|COMMON-LISP-USER|::|BLOCKUNGEN|) |COMMON-LISP|::|NIL| 1)
        #Y(|COMMON-LISP-USER|::|SCH=PLAN_AUSGABE-1|
           #38Y(00 00 00 00 03 00 00 00 21 19 00 10 00 DB B4 38 02 31 95 B2 B4
                31 90 DC B4 31 94 B1 B4 31 90 B3 31 97 A1 11 19 05)
           (|SYSTEM|::|*FORMAT-CS*| "Stundenplan " #\ )
           (|COMMON-LISP|::|T| |COMMON-LISP|::|T| |COMMON-LISP|::|T|))
        |COMMON-LISP|::|FORMAT|
        #Y(|COMMON-LISP-USER|::|SCH=PLAN_AUSGABE-2|
           #23Y(00 00 00 00 01 00 00 00 21 17 00 10 00 DB B2 38 02 31 95 A1 11
                19 03)
           (|SYSTEM|::|*FORMAT-CS*|
            "\n
     ")
           (|COMMON-LISP|::|T| |COMMON-LISP|::|T| |COMMON-LISP|::|T|))
        |COMMON-LISP-USER|::|TAG| |COMMON-LISP-USER|::|YAS=ALLE| 20. "~A"
        |COMMON-LISP-USER|::|KLH=FORMAT|
        #Y(|COMMON-LISP-USER|::|SCH=PLAN_AUSGABE-3|
           #20Y(00 00 00 00 01 00 00 00 21 17 00 10 00 B1 31 97 A1 11 19 03)
           (|SYSTEM|::|*FORMAT-CS*|)
           (|COMMON-LISP|::|T| |COMMON-LISP|::|T| |COMMON-LISP|::|T|))
        |COMMON-LISP-USER|::|STUNDE| 0. 3. 5. "~A" "~a" " "
        |COMMON-LISP-USER|::|SCH=ZEIT_AUS_TAG_STUNDE|
        |COMMON-LISP-USER|::|YAS=EIN_OBJEKT_P| |COMMON-LISP-USER|::|KLASSE|
        "~a" |COMMON-LISP-USER|::|---|
        #Y(|COMMON-LISP-USER|::|SCH=PLAN_AUSGABE-4|
           #20Y(00 00 00 00 01 00 00 00 21 17 00 10 00 B1 31 97 A1 11 19 03)
           (|SYSTEM|::|*FORMAT-CS*|)
           (|COMMON-LISP|::|T| |COMMON-LISP|::|T| |COMMON-LISP|::|T|))
        #Y(|COMMON-LISP-USER|::|SCH=PLAN_AUSGABE-5|
           #20Y(00 00 00 00 01 00 00 00 21 17 00 10 00 B1 31 97 A1 11 19 03)
           (|SYSTEM|::|*FORMAT-CS*|)
           (|COMMON-LISP|::|T| |COMMON-LISP|::|T| |COMMON-LISP|::|T|))
        #Y(|COMMON-LISP-USER|::|SCH=PLAN_AUSGABE-6|
           #20Y(00 00 00 00 01 00 00 00 21 17 00 10 00 B1 31 97 A1 11 19 03)
           (|SYSTEM|::|*FORMAT-CS*|)
           (|COMMON-LISP|::|T| |COMMON-LISP|::|T| |COMMON-LISP|::|T|))
        #Y(|COMMON-LISP-USER|::|SCH=PLAN_AUSGABE-7|
           #21Y(00 00 00 00 02 00 00 00 21 18 00 10 00 B1 B3 31 90 A1 11 19 04)
           (|SYSTEM|::|*FORMAT-CS*|)
           (|COMMON-LISP|::|T| |COMMON-LISP|::|T| |COMMON-LISP|::|T|))
        #\Page)
       (|COMMON-LISP|::|T| |COMMON-LISP|::|T| |COMMON-LISP|::|T|)
       (|COMMON-LISP-USER|::|OBJEKT| |COMMON-LISP|::|&OPTIONAL|
        (|COMMON-LISP|::|STREAM| |COMMON-LISP|::|T|))
       |COMMON-LISP|::|NIL| 1))
   (|COMMON-LISP|::|T| |COMMON-LISP|::|T| |COMMON-LISP|::|T|))
#Y(#:|356 360 (DEFUN SCH=LETZTE_BELEGTE_STUNDE (OBJEKT) ...)-12|
   #20Y(00 00 00 00 00 00 00 00 20 01 DA 2F 01 DA DC 32 9C C5 19 01)
   (|COMMON-LISP-USER|::|SCH=LETZTE_BELEGTE_STUNDE|
    |SYSTEM|::|REMOVE-OLD-DEFINITIONS|
    #Y(|COMMON-LISP-USER|::|SCH=LETZTE_BELEGTE_STUNDE|
       #61Y(00 00 00 00 01 00 00 00 26 02 00 2B 01 7F 02 00 00 9D 2B 01 DA 6F
            01 72 63 00 0B 01 00 1B 17 06 01 00 19 05 9D 5B 0B 01 00 AD 6D 02
            01 DD 6F 01 90 00 29 6B 83 00 AC 8D 9F 6A 00 19 05)
       (|COMMON-LISP-USER|::|STUNDE| |COMMON-LISP-USER|::|YAS=ALLE|
        #Y(|COMMON-LISP-USER|::|SCH=LETZTE_BELEGTE_STUNDE-1|
           #23Y(00 00 00 00 01 00 00 00 26 02 69 01 01 AE 69 00 01 70 01 30 02
                19 02)
           (|COMMON-LISP|::|NIL| |COMMON-LISP-USER|::|SCH=ZEIT_AUS_TAG_STUNDE|
            |COMMON-LISP-USER|::|YAS=LESE_WERT|)
           (|COMMON-LISP|::|T| |COMMON-LISP|::|T| |COMMON-LISP|::|T|)
           (|COMMON-LISP-USER|::|TAG|) |COMMON-LISP|::|NIL| 1)
        |COMMON-LISP-USER|::|TAG|)
       (|COMMON-LISP|::|T| |COMMON-LISP|::|T| |COMMON-LISP|::|T|)
       (|COMMON-LISP-USER|::|OBJEKT|) |COMMON-LISP|::|NIL| 1))
   (|COMMON-LISP|::|T| |COMMON-LISP|::|T| |COMMON-LISP|::|T|))
#Y(#:|362 369 (DEFUN SCH=ERGEBNIS_KLASSEN_AUSGABE NIL ...)-13|
   #20Y(00 00 00 00 00 00 00 00 20 01 DA 2F 01 DA DC 32 9C C5 19 01)
   (|COMMON-LISP-USER|::|SCH=ERGEBNIS_KLASSEN_AUSGABE|
    |SYSTEM|::|REMOVE-OLD-DEFINITIONS|
    #Y(|COMMON-LISP-USER|::|SCH=ERGEBNIS_KLASSEN_AUSGABE|
       #42Y(00 00 00 00 00 00 00 00 26 01 DA DB DC 6E 03 03 DE 6F 05 63 1B 09
            87 01 00 14 AF 30 06 83 01 AD 8D 9F 73 16 02 AC 2F 07 19 02)
       (|COMMON-LISP-USER|::|*KOB=KARSTEN_AUSGABE_FENSTER*| :|WINDOW-TITLE|
        "Klassenplaene" |COMMON-LISP-USER|::|KLH=FENSTERSTREAM-ERZEUGEN|
        |COMMON-LISP-USER|::|KLASSE| |COMMON-LISP-USER|::|YAS=ALLE|
        |COMMON-LISP-USER|::|SCH=PLAN_AUSGABE|
        |COMMON-LISP-USER|::|KLH=FENSTERSTREAM-NACH-OBEN-GEHEN|)
       (|COMMON-LISP|::|T| |COMMON-LISP|::|T| |COMMON-LISP|::|T|) ()
       |COMMON-LISP|::|NIL| 1))
   (|COMMON-LISP|::|T| |COMMON-LISP|::|T| |COMMON-LISP|::|T|))
#Y(#:|371 378 (DEFUN SCH=ERGEBNIS_LEHRER_AUSGABE NIL ...)-14|
   #20Y(00 00 00 00 00 00 00 00 20 01 DA 2F 01 DA DC 32 9C C5 19 01)
   (|COMMON-LISP-USER|::|SCH=ERGEBNIS_LEHRER_AUSGABE|
    |SYSTEM|::|REMOVE-OLD-DEFINITIONS|
    #Y(|COMMON-LISP-USER|::|SCH=ERGEBNIS_LEHRER_AUSGABE|
       #42Y(00 00 00 00 00 00 00 00 26 01 DA DB DC 6E 03 03 DE 6F 05 63 1B 09
            87 01 00 14 AF 30 06 83 01 AD 8D 9F 73 16 02 AC 2F 07 19 02)
       (|COMMON-LISP-USER|::|*KOB=KARSTEN_AUSGABE_FENSTER*| :|WINDOW-TITLE|
        "Lehrerplaene" |COMMON-LISP-USER|::|KLH=FENSTERSTREAM-ERZEUGEN|
        |COMMON-LISP-USER|::|LEHRER| |COMMON-LISP-USER|::|YAS=ALLE|
        |COMMON-LISP-USER|::|SCH=PLAN_AUSGABE|
        |COMMON-LISP-USER|::|KLH=FENSTERSTREAM-NACH-OBEN-GEHEN|)
       (|COMMON-LISP|::|T| |COMMON-LISP|::|T| |COMMON-LISP|::|T|) ()
       |COMMON-LISP|::|NIL| 1))
   (|COMMON-LISP|::|T| |COMMON-LISP|::|T| |COMMON-LISP|::|T|))
#Y(#:|380 387 (DEFUN SCH=ERGEBNIS_RAUM_AUSGABE NIL ...)-15|
   #20Y(00 00 00 00 00 00 00 00 20 01 DA 2F 01 DA DC 32 9C C5 19 01)
   (|COMMON-LISP-USER|::|SCH=ERGEBNIS_RAUM_AUSGABE|
    |SYSTEM|::|REMOVE-OLD-DEFINITIONS|
    #Y(|COMMON-LISP-USER|::|SCH=ERGEBNIS_RAUM_AUSGABE|
       #42Y(00 00 00 00 00 00 00 00 26 01 DA DB DC 6E 03 03 DE 6F 05 63 1B 09
            87 01 00 14 AF 30 06 83 01 AD 8D 9F 73 16 02 AC 2F 07 19 02)
       (|COMMON-LISP-USER|::|*KOB=KARSTEN_AUSGABE_FENSTER*| :|WINDOW-TITLE|
        "Raumplaene" |COMMON-LISP-USER|::|KLH=FENSTERSTREAM-ERZEUGEN|
        |COMMON-LISP-USER|::|RAUM| |COMMON-LISP-USER|::|YAS=ALLE|
        |COMMON-LISP-USER|::|SCH=PLAN_AUSGABE|
        |COMMON-LISP-USER|::|KLH=FENSTERSTREAM-NACH-OBEN-GEHEN|)
       (|COMMON-LISP|::|T| |COMMON-LISP|::|T| |COMMON-LISP|::|T|) ()
       |COMMON-LISP|::|NIL| 1))
   (|COMMON-LISP|::|T| |COMMON-LISP|::|T| |COMMON-LISP|::|T|))
#Y(#:|389 393 (DEFUN SCH=GESAMT_EINGABE_AUSGABE NIL ...)-16|
   #20Y(00 00 00 00 00 00 00 00 20 01 DA 2F 01 DA DC 32 9C C5 19 01)
   (|COMMON-LISP-USER|::|SCH=GESAMT_EINGABE_AUSGABE|
    |SYSTEM|::|REMOVE-OLD-DEFINITIONS|
    #Y(|COMMON-LISP-USER|::|SCH=GESAMT_EINGABE_AUSGABE|
       #18Y(00 00 00 00 00 00 00 00 26 01 2E 00 2E 01 2E 02 19 01)
       (|COMMON-LISP-USER|::|SCH=DIE_LEHRER_LISTE_AUSGEBEN|
        |COMMON-LISP-USER|::|SCH=DIE_RAUM_LISTE_AUSGEBEN|
        |COMMON-LISP-USER|::|SCH=DIE_DEPUTAT_LISTE_AUSGEBEN|)
       (|COMMON-LISP|::|T| |COMMON-LISP|::|T| |COMMON-LISP|::|T|) ()
       |COMMON-LISP|::|NIL| 1))
   (|COMMON-LISP|::|T| |COMMON-LISP|::|T| |COMMON-LISP|::|T|))
#Y(#:|395 402 (DEFUN SCH=GEBE_ALLE_UES_AUS (&OPTIONAL #) ...)-17|
   #20Y(00 00 00 00 00 00 00 00 20 01 DA 2F 01 DA DC 32 9C C5 19 01)
   (|COMMON-LISP-USER|::|SCH=GEBE_ALLE_UES_AUS|
    |SYSTEM|::|REMOVE-OLD-DEFINITIONS|
    #Y(|COMMON-LISP-USER|::|SCH=GEBE_ALLE_UES_AUS|
       #61Y(00 00 00 00 00 00 01 00 26 07 3B 01 04 DA 2F 01 F9 DC 6F 03 DE 6F
            01 71 AB DF E0 38 02 72 82 63 1B 14 87 01 00 14 E1 70 08 B1 AD 8B
            09 04 AD B0 30 0A 16 01 83 01 AD 8D 9F 68 00 19 05)
       (|COMMON-LISP-USER|::|KLASSE| |COMMON-LISP-USER|::|YAS=ALLE|
        |COMMON-LISP-USER|::|*B-AUSGABEFENSTER*|
        |COMMON-LISP-USER|::|KLH=FENSTERSTREAM-ERZEUGEN|
        |COMMON-LISP-USER|::|BLOCKUNG_EINHEIT| #.#'|COMMON-LISP|::|<|
        |COMMON-LISP-USER|::|BE=SCHLUESSEL| |COMMON-LISP-USER|::|KLASSEN|
        |COMMON-LISP-USER|::|YAS=LESE_WERT| |COMMON-LISP|::|INTERSECTION|
        |COMMON-LISP-USER|::|SCH=GEBE_EINE_BE_AUS|)
       (|COMMON-LISP|::|T| |COMMON-LISP|::|T| |COMMON-LISP|::|T|)
       (|COMMON-LISP|::|&OPTIONAL|
        (|COMMON-LISP-USER|::|KLASSEN|
         (|COMMON-LISP-USER|::|YAS=ALLE| '|COMMON-LISP-USER|::|KLASSE|)))
       |COMMON-LISP|::|NIL| 1))
   (|COMMON-LISP|::|T| |COMMON-LISP|::|T| |COMMON-LISP|::|T|))
#Y(#:|404 409 (DEFUN SCH=GEBE_EINE_BE_AUS (BE &OPTIONAL #) ...)-18|
   #20Y(00 00 00 00 00 00 00 00 20 01 DA 2F 01 DA DC 32 9C C5 19 01)
   (|COMMON-LISP-USER|::|SCH=GEBE_EINE_BE_AUS|
    |SYSTEM|::|REMOVE-OLD-DEFINITIONS|
    #Y(|COMMON-LISP-USER|::|SCH=GEBE_EINE_BE_AUS|
       #67Y(00 00 00 00 01 00 01 00 26 08 3B 01 02 7E 01 AD DA B0 B1 DB 8A 02
            0C C9 14 2D 04 05 AE E0 70 02 63 1B 12 C8 1B 72 87 01 00 AF E1 AE
            AF E2 70 02 2D 04 05 83 01 AD 8D 9F 6D 16 02 AD E3 B0 2D 03 05 19
            03)
       (#Y(|COMMON-LISP-USER|::|SCH=GEBE_EINE_BE_AUS-1|
           #53Y(00 00 00 00 03 00 00 00 21 19 00 10 00 DB B4 38 02 31 95 B3 01
                02 DC 01 03 B9 2D 08 03 DE B4 38 02 31 95 B3 01 02 DF 01 03 B8
                2D 08 03 E0 B4 31 94 A1 11 19 05)
           (|SYSTEM|::|*FORMAT-CS*| "Be " 10. |SYSTEM|::|DO-FORMAT-ASCII|
            " #Std " 3. #\ )
           (|COMMON-LISP|::|T| |COMMON-LISP|::|T| |COMMON-LISP|::|T|))
        |COMMON-LISP-USER|::|DOPPEL_STUNDE| |COMMON-LISP-USER|::|YAS=LESE_WERT|
        2. 1. |COMMON-LISP|::|FORMAT|
        |COMMON-LISP-USER|::|UNTERRICHT_EINHEITEN|
        #Y(|COMMON-LISP-USER|::|SCH=GEBE_EINE_BE_AUS-2|
           #49Y(00 00 00 00 03 00 00 00 21 19 00 10 00 DB B4 38 02 31 95 B3 01
                02 DC 01 03 B9 2D 08 03 DE B4 38 02 31 95 B3 01 02 DF 01 03 B8
                2D 08 03 A1 11 19 05)
           (|SYSTEM|::|*FORMAT-CS*| "Ue " 15. |SYSTEM|::|DO-FORMAT-ASCII|
            " Lehrer " 10.)
           (|COMMON-LISP|::|T| |COMMON-LISP|::|T| |COMMON-LISP|::|T|))
        |COMMON-LISP-USER|::|LEHRER|
        #Y(|COMMON-LISP-USER|::|SCH=GEBE_EINE_BE_AUS-3|
           #24Y(00 00 00 00 02 00 00 00 21 18 00 10 00 B1 B3 31 90 B2 31 97 A1
                11 19 04)
           (|SYSTEM|::|*FORMAT-CS*|)
           (|COMMON-LISP|::|T| |COMMON-LISP|::|T| |COMMON-LISP|::|T|)))
       (|COMMON-LISP|::|T| |COMMON-LISP|::|T| |COMMON-LISP|::|T|)
       (|COMMON-LISP-USER|::|BE| |COMMON-LISP|::|&OPTIONAL|
        (|COMMON-LISP|::|STREAM| |COMMON-LISP|::|T|))
       |COMMON-LISP|::|NIL| 1))
   (|COMMON-LISP|::|T| |COMMON-LISP|::|T| |COMMON-LISP|::|T|))
#Y(#:|411 415 (DEFUN BE=SCHLUESSEL (BE) ...)-19|
   #20Y(00 00 00 00 00 00 00 00 20 01 DA 2F 01 DA DC 32 9C C5 19 01)
   (|COMMON-LISP-USER|::|BE=SCHLUESSEL| |SYSTEM|::|REMOVE-OLD-DEFINITIONS|
    #Y(|COMMON-LISP-USER|::|BE=SCHLUESSEL|
       #24Y(00 00 00 00 01 00 00 00 26 02 AD DA 30 01 78 DC 6F 03 38 06 32 7A
            19 02)
       (|COMMON-LISP-USER|::|UNTERRICHT_EINHEITEN|
        |COMMON-LISP-USER|::|YAS=LESE_WERT|
        |COMMON-LISP-USER|::|UNTERRICHT_EINHEIT|
        |COMMON-LISP-USER|::|YAS=ALLE|)
       (|COMMON-LISP|::|T| |COMMON-LISP|::|T| |COMMON-LISP|::|T|)
       (|COMMON-LISP-USER|::|BE|) |COMMON-LISP|::|NIL| 1))
   (|COMMON-LISP|::|T| |COMMON-LISP|::|T| |COMMON-LISP|::|T|))
#Y(#:|417 426 (DEFUN SCH=VERBALISIERE-BLOCKUNG (BLOCKUNG) ...)-20|
   #20Y(00 00 00 00 00 00 00 00 20 01 DA 2F 01 DA DC 32 9C C5 19 01)
   (|COMMON-LISP-USER|::|SCH=VERBALISIERE-BLOCKUNG|
    |SYSTEM|::|REMOVE-OLD-DEFINITIONS|
    #Y(|COMMON-LISP-USER|::|SCH=VERBALISIERE-BLOCKUNG|
       #100Y(03 00 01 00 01 00 00 00 26 02 DA 38 01 32 8F 10 01 53 80 46 DC 6B
             01 B4 DD 70 04 33 02 15 B2 DF 70 04 8E 1D 0A B2 DF 70 04 61 01 14
             63 1B 20 B2 DF 30 04 1B 76 94 03 CC 1B 0D 87 01 00 E0 6B 01 AE AF
             8E 1D 70 AF CC 14 70 04 33 03 15 83 01 AD 8D 9F 67 16 02 6B 01 32
             90 54 6B 01 38 01 32 97 55 11 19 02)
       (|COMMON-LISP|::|CHARACTER| |COMMON-LISP|::|*STANDARD-OUTPUT*|
        #Y(|COMMON-LISP-USER|::|SCH=VERBALISIERE-BLOCKUNG-1|
           #27Y(00 00 00 00 02 00 00 00 21 18 00 10 00 B2 01 02 DB 01 03 B8 2D
                08 02 A1 11 19 04)
           (|SYSTEM|::|*FORMAT-CS*| 3. |SYSTEM|::|DO-FORMAT-ASCII|)
           (|COMMON-LISP|::|T| |COMMON-LISP|::|T| |COMMON-LISP|::|T|))
        |COMMON-LISP-USER|::|DAUER| |COMMON-LISP-USER|::|YAS=LESE_WERT|
        |COMMON-LISP-USER|::|UNTERRICHT_STUNDEN|
        #Y(|COMMON-LISP-USER|::|SCH=VERBALISIERE-BLOCKUNG-2|
           #45Y(00 00 00 00 03 00 00 00 21 19 00 10 00 B3 01 02 DB 01 03 B9 2D
                08 02 DD B4 31 94 B3 01 02 DE 01 03 B8 2D 08 02 DD B4 31 94 A1
                11 19 05)
           (|SYSTEM|::|*FORMAT-CS*| 13. |SYSTEM|::|DO-FORMAT-ASCII| #\  5.)
           (|COMMON-LISP|::|T| |COMMON-LISP|::|T| |COMMON-LISP|::|T|))
        |COMMON-LISP-USER|::|LEHRER|)
       (|COMMON-LISP|::|T| |COMMON-LISP|::|T| |COMMON-LISP|::|T|)
       (|COMMON-LISP-USER|::|BLOCKUNG|) |COMMON-LISP|::|NIL| 1))
   (|COMMON-LISP|::|T| |COMMON-LISP|::|T| |COMMON-LISP|::|T|))
#Y(#:|428 435 (DEFUN SCH=VERBALISIERE-BLOCKUNGEINHEIT (BLOCKUNGEINHEIT) ...)-21|
   #20Y(00 00 00 00 00 00 00 00 20 01 DA 2F 01 DA DC 32 9C C5 19 01)
   (|COMMON-LISP-USER|::|SCH=VERBALISIERE-BLOCKUNGEINHEIT|
    |SYSTEM|::|REMOVE-OLD-DEFINITIONS|
    #Y(|COMMON-LISP-USER|::|SCH=VERBALISIERE-BLOCKUNGEINHEIT|
       #84Y(03 00 01 00 01 00 00 00 26 02 DA 38 01 32 8F 10 01 53 37 DC 6B 01
            B4 DD 8A 04 11 B4 DF 8A 04 0C CC 14 33 02 15 B2 E2 70 04 63 1B 13
            CB 1B 72 87 01 00 E3 6B 01 AE AF E4 70 04 33 03 15 83 01 AD 8D 9F
            6C 16 02 6B 01 32 90 54 6B 01 38 01 32 97 55 11 19 02)
       (|COMMON-LISP|::|CHARACTER| |COMMON-LISP|::|*STANDARD-OUTPUT*|
        #Y(|COMMON-LISP-USER|::|SCH=VERBALISIERE-BLOCKUNGEINHEIT-1|
           #21Y(00 00 00 00 02 00 00 00 21 18 00 10 00 B1 B3 31 90 A1 11 19 04)
           (|SYSTEM|::|*FORMAT-CS*|)
           (|COMMON-LISP|::|T| |COMMON-LISP|::|T| |COMMON-LISP|::|T|))
        |COMMON-LISP-USER|::|DOPPEL_STUNDE| |COMMON-LISP-USER|::|YAS=LESE_WERT|
        |COMMON-LISP-USER|::|ANZAHL_STUNDEN| "*" " "
        |COMMON-LISP-USER|::|UNTERRICHT_EINHEITEN|
        #Y(|COMMON-LISP-USER|::|SCH=VERBALISIERE-BLOCKUNGEINHEIT-2|
           #33Y(00 00 00 00 03 00 00 00 21 19 00 10 00 DB B4 31 94 B2 B4 31 90
                DB B4 31 94 B1 B4 31 90 A1 11 19 05)
           (|SYSTEM|::|*FORMAT-CS*| #\ )
           (|COMMON-LISP|::|T| |COMMON-LISP|::|T| |COMMON-LISP|::|T|))
        |COMMON-LISP-USER|::|LEHRER|)
       (|COMMON-LISP|::|T| |COMMON-LISP|::|T| |COMMON-LISP|::|T|)
       (|COMMON-LISP-USER|::|BLOCKUNGEINHEIT|) |COMMON-LISP|::|NIL| 1))
   (|COMMON-LISP|::|T| |COMMON-LISP|::|T| |COMMON-LISP|::|T|))
#Y(#:|437 458 (DEFUN SCH=VERBALISIERE-BLOCKUNGEINHEIT-KURZ (BLOCKUNGEINHEIT) ...)-22|
   #20Y(00 00 00 00 00 00 00 00 20 01 DA 2F 01 DA DC 32 9C C5 19 01)
   (|COMMON-LISP-USER|::|SCH=VERBALISIERE-BLOCKUNGEINHEIT-KURZ|
    |SYSTEM|::|REMOVE-OLD-DEFINITIONS|
    #Y(|COMMON-LISP-USER|::|SCH=VERBALISIERE-BLOCKUNGEINHEIT-KURZ|
       #203Y(03 00 01 00 01 00 00 00 26 02 DA 38 01 32 8F 10 01 53 80 AD B2 DC
             30 03 5C 1D 0B E2 6B 01 63 B5 DF 70 03 1B 80 4F DE 6B 01 63 B5 DF
             70 03 1B 0C 94 00 AC E0 70 03 84 02 16 01 83 00 AC 8D 9F 70 16 01
             AC 80 B1 00 63 B6 DF 70 03 1B 0C 94 00 AC E1 70 03 84 02 16 01 83
             00 AC 8D 9F 70 16 01 AC 80 B1 00 33 03 15 1B 80 53 94 00 AC E0 70
             03 84 02 16 01 83 00 AC 8D 9F 70 16 01 AC 80 B1 00 63 B6 DF 70 03
             1B 0C 94 00 AC E1 70 03 84 02 16 01 83 00 AC 8D 9F 70 16 01 AC 80
             B1 00 63 B7 DF 70 03 1B 0C 94 00 AC E3 70 03 84 02 16 01 83 00 AC
             8D 9F 70 16 01 AC 80 B1 00 33 04 15 6B 01 32 90 54 6B 01 38 01 32
             97 55 11 19 02)
       (|COMMON-LISP|::|CHARACTER| |COMMON-LISP|::|*STANDARD-OUTPUT*|
        |COMMON-LISP-USER|::|KLASSEN| |COMMON-LISP-USER|::|YAS=LESE_WERT|
        #Y(|COMMON-LISP-USER|::|SCH=VERBALISIERE-BLOCKUNGEINHEIT-KURZ-1|
           #63Y(00 00 00 00 03 00 00 00 21 19 00 10 00 B2 1B 0B 94 00 83 01 B5
                31 90 DB B5 31 94 AC 8D 9F 71 16 01 DC B4 38 02 31 95 B1 1B 0B
                94 00 83 01 B5 31 90 DB B5 31 94 AC 8D 9F 71 16 01 A1 11 19 05)
           (|SYSTEM|::|*FORMAT-CS*| #\  "| ")
           (|COMMON-LISP|::|T| |COMMON-LISP|::|T| |COMMON-LISP|::|T|))
        |COMMON-LISP-USER|::|UNTERRICHT_EINHEITEN| |COMMON-LISP-USER|::|FACH|
        |COMMON-LISP-USER|::|LEHRER|
        #Y(|COMMON-LISP-USER|::|SCH=VERBALISIERE-BLOCKUNGEINHEIT-KURZ-2|
           #89Y(00 00 00 00 04 00 00 00 21 1A 00 10 00 B3 1B 0B 94 00 83 01 B6
                31 90 DB B6 31 94 AC 8D 9F 71 16 01 DC B5 38 02 31 95 B2 1B 0B
                94 00 83 01 B6 31 90 DB B6 31 94 AC 8D 9F 71 16 01 DD B5 38 02
                31 95 B1 1B 0B 94 00 83 01 B6 31 90 DB B6 31 94 AC 8D 9F 71 16
                01 A1 11 19 06)
           (|SYSTEM|::|*FORMAT-CS*| #\  "| " "| ")
           (|COMMON-LISP|::|T| |COMMON-LISP|::|T| |COMMON-LISP|::|T|))
        |COMMON-LISP-USER|::|KLASSE|)
       (|COMMON-LISP|::|T| |COMMON-LISP|::|T| |COMMON-LISP|::|T|)
       (|COMMON-LISP-USER|::|BLOCKUNGEINHEIT|) |COMMON-LISP|::|NIL| 1))
   (|COMMON-LISP|::|T| |COMMON-LISP|::|T| |COMMON-LISP|::|T|))
#Y(#:|460 461 (DEFUN SCH=VERBALISIERE-BLOCKUNGEINHEIT-INTERN (WAS) ...)-23|
   #20Y(00 00 00 00 00 00 00 00 20 01 DA 2F 01 DA DC 32 9C C5 19 01)
   (|COMMON-LISP-USER|::|SCH=VERBALISIERE-BLOCKUNGEINHEIT-INTERN|
    |SYSTEM|::|REMOVE-OLD-DEFINITIONS|
    #Y(|COMMON-LISP-USER|::|SCH=VERBALISIERE-BLOCKUNGEINHEIT-INTERN|
       #20Y(00 00 00 00 01 00 00 00 26 02 AD DA AF 6F 01 2D 03 02 19 02)
       ("> " |COMMON-LISP-USER|::|SCH=VERBALISIERE-BLOCKUNGEINHEIT-KURZ|
        |COMMON-LISP-USER|::|B=KONKATENIERE-NACH-STRING|)
       (|COMMON-LISP|::|T| |COMMON-LISP|::|T| |COMMON-LISP|::|T|)
       (|COMMON-LISP-USER|::|WAS|) |COMMON-LISP|::|NIL| 1))
   (|COMMON-LISP|::|T| |COMMON-LISP|::|T| |COMMON-LISP|::|T|))
#Y(#:|463 466 (DEFUN SCH=VERBALISIERE-UNTERRICHT_EINHEIT (UE) ...)-24|
   #20Y(00 00 00 00 00 00 00 00 20 01 DA 2F 01 DA DC 32 9C C5 19 01)
   (|COMMON-LISP-USER|::|SCH=VERBALISIERE-UNTERRICHT_EINHEIT|
    |SYSTEM|::|REMOVE-OLD-DEFINITIONS|
    #Y(|COMMON-LISP-USER|::|SCH=VERBALISIERE-UNTERRICHT_EINHEIT|
       #23Y(00 00 00 00 01 00 00 00 26 02 AD DA AF DB 70 02 6F 03 2D 03 04 19
            02)
       (" > " |COMMON-LISP-USER|::|BLOCKUNG_EINHEIT|
        |COMMON-LISP-USER|::|YAS=LESE_WERT|
        |COMMON-LISP-USER|::|SCH=VERBALISIERE-BLOCKUNGEINHEIT|
        |COMMON-LISP-USER|::|B=KONKATENIERE-NACH-STRING|)
       (|COMMON-LISP|::|T| |COMMON-LISP|::|T| |COMMON-LISP|::|T|)
       (|COMMON-LISP-USER|::|UE|) |COMMON-LISP|::|NIL| 1))
   (|COMMON-LISP|::|T| |COMMON-LISP|::|T| |COMMON-LISP|::|T|))
#Y(#:|468 471 (DEFUN SCH=VERBALISIERE-UNTERRICHT_EINHEIT-KURZ (UE) ...)-25|
   #20Y(00 00 00 00 00 00 00 00 20 01 DA 2F 01 DA DC 32 9C C5 19 01)
   (|COMMON-LISP-USER|::|SCH=VERBALISIERE-UNTERRICHT_EINHEIT-KURZ|
    |SYSTEM|::|REMOVE-OLD-DEFINITIONS|
    #Y(|COMMON-LISP-USER|::|SCH=VERBALISIERE-UNTERRICHT_EINHEIT-KURZ|
       #23Y(00 00 00 00 01 00 00 00 26 02 AD DA AF DB 70 02 6F 03 2D 03 04 19
            02)
       (" > " |COMMON-LISP-USER|::|BLOCKUNG_EINHEIT|
        |COMMON-LISP-USER|::|YAS=LESE_WERT|
        |COMMON-LISP-USER|::|SCH=VERBALISIERE-BLOCKUNGEINHEIT-KURZ|
        |COMMON-LISP-USER|::|B=KONKATENIERE-NACH-STRING|)
       (|COMMON-LISP|::|T| |COMMON-LISP|::|T| |COMMON-LISP|::|T|)
       (|COMMON-LISP-USER|::|UE|) |COMMON-LISP|::|NIL| 1))
   (|COMMON-LISP|::|T| |COMMON-LISP|::|T| |COMMON-LISP|::|T|))
#Y(#:|473 480 (DEFUN SCH=VERBALISIERE-UNTERRICHT_EINHEIT-LEHRER (UE) ...)-26|
   #20Y(00 00 00 00 00 00 00 00 20 01 DA 2F 01 DA DC 32 9C C5 19 01)
   (|COMMON-LISP-USER|::|SCH=VERBALISIERE-UNTERRICHT_EINHEIT-LEHRER|
    |SYSTEM|::|REMOVE-OLD-DEFINITIONS|
    #Y(|COMMON-LISP-USER|::|SCH=VERBALISIERE-UNTERRICHT_EINHEIT-LEHRER|
       #71Y(03 00 01 00 01 00 00 00 26 02 DA 38 01 32 8F 10 01 53 23 B2 DC 30
            03 20 27 DF 6B 01 B4 C7 14 70 03 33 02 15 E0 6B 01 B4 E1 70 03 B5
            6F 08 33 03 15 6B 01 32 90 54 6B 01 38 01 32 97 55 11 19 02 DE 6B
            01 B4 C7 1B 57)
       (|COMMON-LISP|::|CHARACTER| |COMMON-LISP|::|*STANDARD-OUTPUT*|
        |COMMON-LISP-USER|::|KLASSE| |COMMON-LISP-USER|::|YAS=LESE_WERT|
        #Y(|COMMON-LISP-USER|::|SCH=VERBALISIERE-UNTERRICHT_EINHEIT-LEHRER-1|
           #25Y(00 00 00 00 02 00 00 00 21 18 00 10 00 B1 B3 31 90 DB B3 31 94
                A1 11 19 04)
           (|SYSTEM|::|*FORMAT-CS*| #\|)
           (|COMMON-LISP|::|T| |COMMON-LISP|::|T| |COMMON-LISP|::|T|))
        #Y(|COMMON-LISP-USER|::|SCH=VERBALISIERE-UNTERRICHT_EINHEIT-LEHRER-2|
           #41Y(00 00 00 00 02 00 00 00 21 18 00 10 00 B1 1B 0B 94 00 83 01 B4
                31 90 DB B4 31 94 AC 8D 9F 71 16 01 DC B3 31 94 A1 11 19 04)
           (|SYSTEM|::|*FORMAT-CS*| #\  #\|)
           (|COMMON-LISP|::|T| |COMMON-LISP|::|T| |COMMON-LISP|::|T|))
        #Y(|COMMON-LISP-USER|::|SCH=VERBALISIERE-UNTERRICHT_EINHEIT-LEHRER-3|
           #29Y(00 00 00 00 03 00 00 00 21 19 00 10 00 B2 B4 31 90 DB B4 31 94
                B1 B4 31 90 A1 11 19 05)
           (|SYSTEM|::|*FORMAT-CS*| #\|)
           (|COMMON-LISP|::|T| |COMMON-LISP|::|T| |COMMON-LISP|::|T|))
        |COMMON-LISP-USER|::|FACH| |COMMON-LISP-USER|::|SCH=DER-RAUM|)
       (|COMMON-LISP|::|T| |COMMON-LISP|::|T| |COMMON-LISP|::|T|)
       (|COMMON-LISP-USER|::|UE|) |COMMON-LISP|::|NIL| 1))
   (|COMMON-LISP|::|T| |COMMON-LISP|::|T| |COMMON-LISP|::|T|))
#Y(#:|483 509 (DEFUN SCH=VERBALISIERE-EIN_CONSTRAINT (CONSTRAINT) ...)-27|
   #20Y(00 00 00 00 00 00 00 00 20 01 DA 2F 01 DA DC 32 9C C5 19 01)
   (|COMMON-LISP-USER|::|SCH=VERBALISIERE-EIN_CONSTRAINT|
    |SYSTEM|::|REMOVE-OLD-DEFINITIONS|
    #Y(|COMMON-LISP-USER|::|SCH=VERBALISIERE-EIN_CONSTRAINT|
       #74Y(00 00 00 00 01 00 00 00 26 02 9E 26 00 39 C6 19 02 C7 19 02 C8 19
            02 C9 19 02 CA 19 02 CB 19 02 CC 19 02 CD 19 02 CE 19 02 CF 19 02
            D0 19 02 D1 19 02 D2 19 02 D3 19 02 D4 19 02 D5 19 02 D6 19 02 D7
            19 02 D8 19 02 9E 19 02)
       (#S(|COMMON-LISP|::|HASH-TABLE| :|TEST| |EXT|::|STABLEHASH-EQ|
           (|COMMON-LISP-USER|::|C_BLOCK_EINHEIT_NACHMITTAG_NEU| . 55.)
           (|COMMON-LISP-USER|::|C_ZUVIEL_HAUPTFAECHER_AM_TAG| . 52.)
           (|COMMON-LISP-USER|::|C_FAECHER_KEIN_BOCK| . 49.)
           (|COMMON-LISP-USER|::|C_BLOCKUNG_EINHEIT_ZEIT_BLOCK_DOPPELT| . 46.)
           (|COMMON-LISP-USER|::|C_HARMLOSE_DOPPEL_STUNDE| . 43.)
           (|COMMON-LISP-USER|::|C_LEHRER_FREIE_TAGE| . 40.)
           (|COMMON-LISP-USER|::|C_KLASSE_MAX_HOHLSTUNDEN| . 37.)
           (|COMMON-LISP-USER|::|C_LEHRER_MAX_HOHLSTUNDEN_LEHRER| . 34.)
           (|COMMON-LISP-USER|::|C_UNTERRICHT_EINHEIT_ZEIT_LEHRER_KEINE_LUST_TAG|
            . 31.)
           (|COMMON-LISP-USER|::|C_BLOCKUNG_EINHEIT_ZEIT_RAUM_BESETZT_DOPPEL| .
            28.)
           (|COMMON-LISP-USER|::|C_BLOCKUNG_EINHEIT_ZEIT_LEHRER_BESETZT_DOPPELSTUNDE|
            . 25.)
           (|COMMON-LISP-USER|::|C_BLOCKUNG_EINHEIT_ZEIT_KLASSE_BESETZT_DOPPEL|
            . 22.)
           (|COMMON-LISP-USER|::|C_BLOCKUNG_EINHEIT_ZEIT_RAUM_AUSGESCHLOSSENE_ZEIT|
            . 19.)
           (|COMMON-LISP-USER|::|C_BLOCKUNG_EINHEIT_KLASSENZEIT_AUSGESCHLOSSEN|
            . 16.)
           (|COMMON-LISP-USER|::|C_UNTERRICHT_EINHEIT_ZEIT_LEHRER_AUSGESCHLOSSENE_ZEIT|
            . 13.)
           (|COMMON-LISP-USER|::|C_BLOCKUNG_EINHEIT_ZEIT_DOPPEL_STUNDEN_ZEIT| .
            10.)
           (|COMMON-LISP-USER|::|C_BLOCKUNG_EINHEIT_ZEIT_RAUM_BESETZT| . 7.)
           (|COMMON-LISP-USER|::|C_BLOCKUNG_EINHEIT_ZEIT_LEHRER_BESETZT| . 4.)
           (|COMMON-LISP-USER|::|C_BLOCKUNG_EINHEIT_ZEIT_KLASSE_BESETZT| . 1.))
        "Die/eine Klasse des Kurses ist doppelt belegt"
        "Der/ein Lehrer des Kurses ist doppelt belegt"
        "Der/ein Raum des Kurses ist doppelt belegt"
        "Der Kurs faengt nicht zu einer fuer Doppelstunde geigneten Zeit an"
        "Die Zeit ist fuer den/einen Lehrer des Kurses nicht moeglich"
        "Die Zeit ist fuer die/eine Klasse des Kurses nicht moeglich"
        "Die Zeit ist fuer den/einen Raum des Kurses nicht moeglich"
        "Die/eine Klasse des Kurses ist zur zweiten Stunde doppelt belegt"
        "Der/ein Lehrer des Kurses ist zur zweiten Stunde doppelt belegt"
        "Der/ein Raum des Kurses ist zur zweiten Stunde doppelt belegt"
        "Der Lehrer moechte an diesem Tag nicht unterrichten"
        "Der Lehrer hat zuviel Hohlstunden" "Die Klasse hat zuviel Hohlstunden"
        "Der Lehrer hat zuwenig freie Tage"
        "Eine unbeabsichtigte Doppelstunde ist aufgetreten"
        "Das Fach wird an diesem Tag schon einmal unterrichtet"
        "Das Fach soll nicht zu dieser Stunde unterrichtet werden"
        "Es gibt bei einer Klasse an diesem Tag zu viele Hauptfaecher"
        "Bei einer Klasse soll kein nachmittagsunterricht stattfinden")
       (|COMMON-LISP|::|T| |COMMON-LISP|::|NIL| |COMMON-LISP|::|NIL|)
       (|COMMON-LISP-USER|::|CONSTRAINT|) |COMMON-LISP|::|NIL| 1))
   (|COMMON-LISP|::|T| |COMMON-LISP|::|T| |COMMON-LISP|::|T|))
#Y(#:|512 524 (DEFUN SCH=VERBALISIERE-CONSTRAINT (CONSTRAINT OBJEKT ATTRIBUT) ...)-28|
   #20Y(00 00 00 00 00 00 00 00 20 01 DA 2F 01 DA DC 32 9C C5 19 01)
   (|COMMON-LISP-USER|::|SCH=VERBALISIERE-CONSTRAINT|
    |SYSTEM|::|REMOVE-OLD-DEFINITIONS|
    #Y(|COMMON-LISP-USER|::|SCH=VERBALISIERE-CONSTRAINT|
       #141Y(00 00 00 00 03 00 00 00 26 04 AE AE 8A 00 01 C6 14 38 02 72 8F B1
             6F 02 B1 6F 03 AC 24 04 22 AC 25 08 2F 38 02 72 8F B3 6F 09 00 10
             06 AF B1 31 90 CF 14 B1 38 02 31 95 B4 B1 31 90 11 16 01 1B 2F 38
             02 72 8F B3 6F 05 00 10 06 AF B1 31 90 CC 1B 60 38 02 72 8F 00 10
             06 B6 B0 31 90 E5 B0 31 94 B5 B0 31 90 E6 B0 38 02 31 95 B3 B0 31
             90 11 AC 32 90 16 01 F8 00 10 06 B0 B2 31 90 E5 B2 31 94 AF B2 31
             90 11 16 02 AC 32 90 19 06)
       (|COMMON-LISP-USER|::|YAS=LESE_WERT| ""
        |COMMON-LISP-USER|::|SCH=VERBALISIERE-EIN_CONSTRAINT|
        |COMMON-LISP-USER|::|YAS=DER_VATER|
        |COMMON-LISP-USER|::|BLOCKUNG_EINHEIT|
        |COMMON-LISP-USER|::|SCH=VERBALISIERE-BLOCKUNGEINHEIT|
        |SYSTEM|::|*FORMAT-CS*| " = " |COMMON-LISP-USER|::|UNTERRICHT_EINHEIT|
        |COMMON-LISP-USER|::|SCH=VERBALISIERE-UNTERRICHT_EINHEIT| " = " #\ 
        " =  ")
       (|COMMON-LISP|::|T| |COMMON-LISP|::|T| |COMMON-LISP|::|T|)
       (|COMMON-LISP-USER|::|CONSTRAINT| |COMMON-LISP-USER|::|OBJEKT|
        |COMMON-LISP-USER|::|ATTRIBUT|)
       |COMMON-LISP|::|NIL| 1))
   (|COMMON-LISP|::|T| |COMMON-LISP|::|T| |COMMON-LISP|::|T|))
